Resultados_Ferramenta_Computacional_ds_ons_122023_rv0d29/ds_ons_122023_rv0d29_Estagio37.m
function mpc = ds_ons_122023_rv0d29_Estagio37
% CASO SIN: extraido dos arquivos de dados do DESSEM
%
% CASO SIN: Fluxo de Potencia do SIN extraido de arquivo de dados do DESSEM
% Autores Francisco Povoas e Murilo Reolon
%
%   MATPOWER
%
%% MATPOWER Case Format : Version 2
mpc.version = '2';
%
%%-----  Power Flow Data  -----%%

%% system MVA base
mpc.baseMVA = 100;

%% bus data
%	bus_i   type    Pd      Qd      Gs      Bs      area    Vm      Va      baseKV  zone    Vmax    Vmin
mpc.bus = [
   10      1       32.0    47.5    0       0       221     0.976   27.3    992     0       1.05    0.95;
   11      2       0       0       0       0       221     0.98    35      992     0       1.05    0.95;
   12      2       0       0       0       0       204     0.967   40.7    992     0       1.05    0.95;
   13      1       0       -2.472  0       0       204     1.004   35.6    990     0       1.05    0.95;
   14      2       0       0       0       0       225     0.963   29.2    992     0       1.05    0.95;
   16      2       0       0       0       0       189     1.017   34.8    992     0       1.05    0.95;
   17      1       0       16.4    0       0       189     0.999   28.4    990     0       1.05    0.95;
   18      2       0       0       0       0       188     0.964   44.1    992     0       1.05    0.95;
   19      1       0       -114.2  0       0       188     0.997   35.8    990     0       1.05    0.95;
   20      2       0       0       0       0       188     1.025   45.5    992     0       1.05    0.95;
   21      2       0       0       0       0       137     0.962   33.8    992     0       1.05    0.95;
   22      2       0       0       0       0       189     0.994   41.5    992     0       1.05    0.95;
   23      1       0       -27.47  0       0       149     0.986   23      990     0       1.05    0.95;
   24      2       0       0       0       0       208     0.975   41.4    992     0       1.05    0.95;
   27      1       0       0       0       0       202     1.078   27.7    500     0       1.1     1;
   28      2       0       0       0       0       208     0.978   57.2    992     0       1.05    0.95;
   30      1       0       16.7    0       0       224     0.999   16.6    992     0       1.05    0.95;
   31      1       0       5.25    0       0       224     0.999   16.6    992     0       1.05    0.95;
   32      1       0       7.28    0       0       224     0.999   16.6    992     0       1.05    0.95;
   35      2       0       0       0       0       148     0.965   37.6    992     0       1.05    0.95;
   36      2       0       0       0       0       147     0.951   14.8    992     0       1.05    0.95;
   37      1       0       -275.8  0       0       147     0.988   9.88    990     0       1.05    0.95;
   38      1       0       27.5    0       0       221     1.007   17.5    13.8    0       1.05    0.95;
   41      1       0       -5.154  0       0       234     1.002   -5      990     0       1.05    0.95;
   44      1       0       27.6    0       0       221     1.007   17.5    13.8    0       1.05    0.95;
   46      1       0       0       0       0       222     1.042   2.69    15      0       1.9     0.4;
   47      1       0       -5.535  0       0       234     1.002   -5      990     0       1.05    0.95;
   48      1       0       410.0   0       0       204     0.987   22.9    20      0       1.05    0.95;
   50      1       0       -9.206  0       0       201     0.981   20.2    20      0       1.05    0.95;
   52      1       0       0       0       0       222     1.02    2.69    345     0       1.05    0.95;
   53      1       0       -27.99  0       0       222     0.973   2.69    20      0       1.05    0.95;
   54      2       0       0       0       0       222     0.973   2.69    20      0       1.05    0.95;
   56      1       0       0       0       0       201     0.914   42.7    69      0       1.9     0.4;
   57      1       0       0       0       0       201     0.911   42.8    69      0       1.9     0.4;
   58      1       0       0       0       0       201     1.03    42.8    991     0       1.9     0.4;
   59      1       0       0       0       0       201     1.025   42.7    991     0       1.9     0.4;
   60      1       0       0       0       0       201     1.004   51.2    765     0       1.046   0.9;
   61      1       0       0       0       0       240     1.048   54.3    500     0       1.1     1;
   62      1       0       0       0       0       201     1.04    35.8    765     0       1.046   0.9;
   63      1       0       0       0       0       201     1.04    35.8    765     0       1.046   0.9;
   64      1       0       0       0       0       201     1.038   36.1    765     0       1.046   0.9;
   65      1       0       0       0       0       201     1.038   41.9    765     0       1.046   0.9;
   66      1       0       0       0       0       101     1.021   42.6    525     0       1.048   0.95;
   67      1       0.24    0.0     0       0       201     0.922   42.8    69      0       1.9     0.4;
   68      1       0       0       0       0       201     1.043   42.8    991     0       1.9     0.4;
   69      1       0       0       0       0       201     1.033   49.1    765     0       1.046   0.9;
   70      1       0       0       0       0       201     1.034   49.1    765     0       1.046   0.9;
   71      1       0       0       0       0       201     1.033   49.1    765     0       1.046   0.9;
   72      1       0       0       0       0       201     1.037   34.9    765     0       1.046   0.9;
   73      1       0       0       0       0       201     1.008   43.5    765     0       1.046   0.9;
   74      1       0       0       0       0       201     1.008   43.5    765     0       1.046   0.9;
   75      1       0       0       0       0       201     1.005   43.1    765     0       1.046   0.9;
   76      1       0       0       0       0       201     0.995   27      765     0       1.046   0.9;
   77      1       0       0       0       0       202     1.047   26.7    500     0       1.1     1;
   78      1       0       0       0       0       204     1.013   20.9    345     0       1.05    0.95;
   79      1       0       0       0       0       201     0.95    26.7    69      0       1.9     0.4;
   80      1       0       0       0       0       201     1.011   26.7    991     0       1.9     0.4;
   81      1       0       0       0       0       201     0.979   20.2    991     0       1.9     0.4;
   82      1       0       0       0       0       204     1.008   21.1    345     0       1.05    0.95;
   84      1       0       0       0       0       225     1.007   24.5    138     0       1.05    0.95;
   85      1       60.0    0.0     0       0       241     1.101   -0.09   500     0       1.1     1;
   86      1       0       1034.0  0       0       204     1.03    22.9    345     0       1.05    0.95;
   87      1       0       0       0       0       221     1.077   26.5    500     0       1.1     1;
   90      1       0       0       0       0       234     0.996   -4.2    345     0       1.05    0.95;
   91      1       0       0       0       0       234     0.987   -6.4    13.8    0       1.9     0.4;
   92      1       0       0       0       0       147     0.951   17      500     0       1.1     1;
   93      1       0       0       0       0       147     0.966   16.2    500     0       1.1     1;
   94      1       0       0       0       0       147     0.966   16.5    500     0       1.1     1;
   95      1       0       0       0       0       234     0.987   -6.4    13.8    0       1.9     0.4;
   96      1       0       0       0       0       234     0.987   -6.4    13.8    0       1.9     0.4;
   99      1       0       0       0       0       202     1.079   38.5    500     0       1.1     1;
   100     1       0       0       0       0       188     1.063   38.9    500     0       1.1     1;
   101     1       0       0       0       0       202     1.08    36.4    500     0       1.1     1;
   102     1       0       0       0       0       188     1.075   30.4    500     0       1.1     1;
   103     1       0       0       0       0       202     1.07    28.3    500     0       1.1     1;
   104     1       0       0       0       0       202     1.095   25.2    500     0       1.1     1;
   105     1       0       0       0       0       221     1.059   27.6    500     0       1.1     1;
   106     1       0       0       0       0       221     1.065   22.9    500     0       1.1     1;
   107     1       0       0       0       0       221     1.064   21      500     0       1.1     1;
   108     1       0       0       0       0       221     1.057   21.8    500     0       1.1     1;
   109     1       0       0       0       0       221     1.065   22.9    500     0       1.1     1;
   110     1       0       0       0       0       221     1.015   17.5    991     0       1.9     0.4;
   112     1       0       0       0       0       101     1.099   34.3    500     0       1.1     1;
   113     1       0       0       0       0       101     1.099   34.3    500     0       1.1     1;
   114     1       0       0       0       0       101     1.099   34.3    500     0       1.1     1;
   115     1       0       0       0       0       101     1.016   40      500     0       1.1     1;
   116     1       0       0       0       0       226     1.002   11.5    138     0       1.05    0.95;
   118     1       0       0       0       0       148     0.967   19.7    991     0       1.9     0.4;
   119     1       0       0       0       0       148     0.967   19.7    13.8    0       1.9     0.4;
   120     1       0       0       0       0       189     1.002   25.1    345     0       1.05    0.95;
   121     1       0       0       0       0       188     1.013   24      991     0       1.9     0.4;
   122     1       0       0       0       0       202     1.088   27.2    500     0       1.1     1;
   123     1       0       0       0       0       204     0.986   23.8    345     0       1.05    0.95;
   124     1       0       0       0       0       202     1.019   22.8    991     0       1.9     0.4;
   125     1       0       0       0       0       202     1.081   19.6    500     0       1.1     1;
   126     1       0       0       0       0       204     1.016   16.7    345     0       1.05    0.95;
   127     1       0       0       0       0       204     1.017   19.2    345     0       1.05    0.95;
   128     1       0       0       0       0       204     1.017   19.2    345     0       1.05    0.95;
   129     1       0       0       0       0       204     1.014   18.3    345     0       1.05    0.95;
   130     1       0       0       0       0       202     1.081   19.6    500     0       1.1     1;
   131     1       0       0       0       0       189     1.007   35.1    345     0       1.05    0.95;
   133     1       0       0       0       0       222     0.994   13.8    991     0       1.9     0.4;
   134     1       0       0       0       0       204     1.001   35.6    345     0       1.05    0.95;
   135     1       0       0       0       0       222     0.986   14.9    991     0       1.9     0.4;
   136     1       0       0       0       0       189     1.012   28.4    345     0       1.05    0.95;
   137     1       0       0       0       0       222     0.986   14.9    991     0       1.9     0.4;
   138     1       0       0       0       0       189     1.008   14.8    345     0       1.05    0.95;
   139     1       0       0       0       0       221     1.006   18      991     0       1.9     0.4;
   140     1       0       0       0       0       222     1.012   17.2    345     0       1.05    0.95;
   141     1       0       0       0       0       221     1.009   15.6    991     0       1.9     0.4;
   142     1       0       0       0       0       221     1.008   16      991     0       1.9     0.4;
   143     1       0       0       0       0       222     0.995   13.7    991     0       1.9     0.4;
   144     1       0       0       0       0       222     1.001   16.7    345     0       1.05    0.95;
   145     1       0       0       0       0       222     0.994   13.7    991     0       1.9     0.4;
   146     1       0       0       0       0       222     0.994   13.7    991     0       1.9     0.4;
   147     1       0       0       0       0       222     1.018   2.69    345     0       1.05    0.95;
   148     1       0       0       0       0       222     1.012   0.97    991     0       1.9     0.4;
   149     1       0       0       0       0       234     0.993   -5      345     0       1.05    0.95;
   150     1       0       0       0       0       234     0.989   -7.6    991     0       1.9     0.4;
   152     1       0       0       0       0       234     0.989   -7.6    991     0       1.9     0.4;
   153     1       0       0       0       0       234     0.987   -7.7    991     0       1.9     0.4;
   154     1       0       0       0       0       234     1.023   -7.6    13.8    0       1.9     0.4;
   155     1       0       0       0       0       234     1.021   -7.7    13.8    0       1.9     0.4;
   156     1       0       0       0       0       234     1.017   -7.5    13.8    0       1.9     0.4;
   158     1       0       0       0       0       234     0.988   -7.5    991     0       1.9     0.4;
   159     1       0       0       0       0       222     0.958   14.9    13.8    0       1.9     0.4;
   160     1       0       0       0       0       222     0.962   14.8    13.8    0       1.9     0.4;
   161     1       0       0       0       0       205     0.999   18      230     0       1.05    0.95;
   162     1       0       0       0       0       204     0.983   22.1    991     0       1.9     0.4;
   163     1       0       0       0       0       204     0.954   22.1    13.8    0       1.9     0.4;
   164     1       0       0       0       0       189     1.057   22.4    991     0       1.9     0.4;
   165     1       0       0       0       0       189     0.992   22.4    13.8    0       1.9     0.4;
   166     1       0       0       0       0       222     0.987   14.8    991     0       1.9     0.4;
   167     1       0       0       0       0       222     0.958   14.9    13.8    0       1.9     0.4;
   169     1       0       0       0       0       224     1.015   17.1    138     0       1.05    0.95;
   170     1       0       0       0       0       196     1.038   22.8    138     0       1.05    0.95;
   171     1       0       0       0       0       207     1.021   21.9    138     0       1.05    0.95;
   172     1       0       0       0       0       226     1.005   15.2    138     0       1.05    0.95;
   173     1       0       0       0       0       226     1.022   13.8    138     0       1.05    0.95;
   174     1       0       0       0       0       228     1.007   3.91    138     0       1.05    0.95;
   175     1       0       0       0       0       229     1.029   1.06    138     0       1.05    0.95;
   176     1       0       0       0       0       202     1.016   23      991     0       1.9     0.4;
   177     1       0       0       0       0       236     1.004   -7.3    138     0       1.05    0.95;
   178     1       0       0       0       0       224     1.001   17.7    138     0       1.05    0.95;
   179     1       0       0       0       0       221     1.015   17.5    991     0       1.9     0.4;
   180     1       0       0       0       0       224     1.005   15      138     0       1.05    0.95;
   181     1       0       0       0       0       221     1.008   21.2    138     0       1.05    0.95;
   182     1       0       0       0       0       225     1.012   24.5    138     0       1.05    0.95;
   183     1       0       0       0       0       214     1.011   24.4    138     0       1.05    0.95;
   184     1       0       0       0       0       224     1.004   16.6    138     0       1.05    0.95;
   185     1       0       0       0       0       225     1.049   28      138     0       1.05    0.95;
   186     1       0       0       0       0       202     1.016   23      13.8    0       1.9     0.4;
   187     1       0       0       0       0       195     1.03    35      138     0       1.05    0.95;
   189     1       0       0       0       0       159     0.923   6.47    991     0       1.9     0.4;
   190     1       0       0       0       0       208     0.997   51      138     0       1.05    0.95;
   192     1       0       0       0       0       222     1.012   0.97    13.8    0       1.9     0.4;
   194     1       0       0       0       0       221     0.924   16      13.8    0       1.9     0.4;
   195     1       0       0       0       0       221     0.925   15.6    13.8    0       1.9     0.4;
   196     1       0       0       0       0       202     0.934   22.8    13.8    0       1.9     0.4;
   197     1       0       0       0       0       221     1.006   18      13.8    0       1.9     0.4;
   198     1       0       0       0       0       188     0.858   24      13.8    0       1.9     0.4;
   199     1       0       0       0       0       234     1.022   -7.6    13.8    0       1.9     0.4;
   200     1       0       0       0       0       229     0.997   -2.3    991     0       1.9     0.4;
   201     1       0       0       0       0       229     0.997   -2.3    992     0       1.05    0.95;
   202     1       0       0       0       0       229     0.997   -2.3    991     0       1.9     0.4;
   203     1       0       0       0       0       229     0.997   -2.3    992     0       1.05    0.95;
   204     1       0       0       0       0       222     0.994   13.7    13.8    0       1.9     0.4;
   205     1       0       0       0       0       222     0.994   13.7    13.8    0       1.9     0.4;
   206     1       0       0       0       0       222     0.995   13.7    13.8    0       1.9     0.4;
   208     1       0       0       0       0       159     0.923   6.47    13.8    0       1.9     0.4;
   209     1       0       0       0       0       222     0.994   13.8    13.8    0       1.9     0.4;
   210     1       0       0       0       0       188     1.022   35.8    500     0       1.1     1;
   211     1       0       0       0       0       222     1.012   0.945   991     0       1.9     0.4;
   212     1       0       0       0       0       222     1.012   0.945   13.8    0       1.9     0.4;
   213     1       0       0       0       0       189     1.019   38      345     0       1.05    0.95;
   214     1       0       0       0       0       188     1.022   37.8    991     0       1.9     0.4;
   216     1       0       0       0       0       189     1.015   37.1    345     0       1.05    0.95;
   217     1       0       0       0       0       189     0.974   32.9    345     0       1.05    0.95;
   218     1       0       0       0       0       148     0.953   20.6    345     0       1.05    0.95;
   219     1       0       0       0       0       158     0.931   12.7    345     0       1.05    0.95;
   220     1       0       0       0       0       148     0.968   31.2    345     0       1.05    0.95;
   221     1       0       0       0       0       160     1.011   6.73    34.5    0       1.05    0.95;
   222     1       0       0       0       0       158     0.936   11.1    991     0       1.9     0.4;
   223     1       0       0       0       0       148     0.968   19.6    991     0       1.9     0.4;
   224     1       0       0       0       0       148     0.969   19.6    991     0       1.9     0.4;
   225     1       0       0       0       0       190     1.044   32.5    230     0       1.05    0.95;
   226     1       0       0       0       0       149     0.99    19.8    230     0       1.05    0.95;
   227     1       0       0       0       0       159     0.935   11.2    230     0       1.05    0.95;
   228     1       0       0       0       0       159     0.935   11.4    230     0       1.05    0.95;
   229     1       0       0       0       0       149     0.987   0.496   230     0       1.05    0.95;
   230     1       0       0       0       0       149     1.031   12.2    230     0       1.05    0.95;
   231     1       0       0       0       0       149     1.005   30.1    230     0       1.05    0.95;
   232     1       0       0       0       0       158     0.936   11.1    13.8    0       1.9     0.4;
   233     1       0       0       0       0       157     0.974   13.3    500     0       1.1     1;
   234     1       0       0       0       0       158     1.016   13.1    345     0       1.05    0.95;
   235     1       0       0       0       0       147     0.964   9.88    500     0       1.1     1;
   236     1       0       0       0       0       160     1.019   8.52    138     0       1.05    0.95;
   237     1       0       0       0       0       160     0.985   11      138     0       1.05    0.95;
   238     1       0       0       0       0       153     1.044   27.7    138     0       1.05    0.95;
   239     1       0       0       0       0       154     1.043   10.1    138     0       1.05    0.95;
...
];
%% generator data
%	bus       Pg        Qg        Qmax      Qmin      Vg        mBase     status    Pmax      Pmin      Pc1       Pc2       Qc1min    Qc1max    Qc2min    Qc2max    ramp_agc  ramp_10   ramp_30   ramp_q    apf
mpc.gen = [
   11        1350.0    33.18     600.0     -350.0    0.98      100       1         1350.0    0.0       0.00      0.00      0.00      0.00      0.00      0.00      0.00      0.00      0.00      0.00      0.00;
   12        729.0     -339.0    420.0     -540.0    0.967     100       1         875.0     0.0       0.00      0.00      0.00      0.00      0.00      0.00      0.00      0.00      0.00      0.00      0.00;
   14        164.52    -77.2     100.0     -100.0    0.963     100       1         216.0     0.0       0.00      0.00      0.00      0.00      0.00      0.00      0.00      0.00      0.00      0.00      0.00;
   16        912.0     61.25     400.0     -400.0    1.017     100       1         912.0     0.0       0.00      0.00      0.00      0.00      0.00      0.00      0.00      0.00      0.00      0.00      0.00;
   16        267.94    61.25     400.0     -400.0    1.017     100       1         304.0     0.0       0.00      0.00      0.00      0.00      0.00      0.00      0.00      0.00      0.00      0.00      0.00;
   18        1712.82   36.82     600.0     -546.0    0.964     100       1         1735.0    0.0       0.00      0.00      0.00      0.00      0.00      0.00      0.00      0.00      0.00      0.00      0.00;
   20        1094.6    -420.0    640.0     -640.0    1.025     100       1         1440.0    0.0       0.00      0.00      0.00      0.00      0.00      0.00      0.00      0.00      0.00      0.00      0.00;
   21        140.39    -16.1     42.0      -40.0     0.962     100       1         157.5     0.0       0.00      0.00      0.00      0.00      0.00      0.00      0.00      0.00      0.00      0.00      0.00;
   22        196.0     -8.8      126.0     -120.0    0.994     100       1         196.0     0.0       0.00      0.00      0.00      0.00      0.00      0.00      0.00      0.00      0.00      0.00      0.00;
   22        33.45     -8.8      126.0     -120.0    0.994     100       1         104.0     0.0       0.00      0.00      0.00      0.00      0.00      0.00      0.00      0.00      0.00      0.00      0.00;
   24        80.0      21.94     62.0      -24.0     0.975     100       1         80.0      0.0       0.00      0.00      0.00      0.00      0.00      0.00      0.00      0.00      0.00      0.00      0.00;
   24        39.29     21.94     62.0      -24.0     0.975     100       1         96.0      0.0       0.00      0.00      0.00      0.00      0.00      0.00      0.00      0.00      0.00      0.00      0.00;
   28        219.92    -34.5     100.0     -100.0    0.978     100       1         240.0     0.0       0.00      0.00      0.00      0.00      0.00      0.00      0.00      0.00      0.00      0.00      0.00;
   35        298.78    90.51     180.0     -180.0    0.965     100       1         375.0     0.0       0.00      0.00      0.00      0.00      0.00      0.00      0.00      0.00      0.00      0.00      0.00;
   36        1087.04   426.9     480.0     -480.0    0.951     100       1         1275.0    0.0       0.00      0.00      0.00      0.00      0.00      0.00      0.00      0.00      0.00      0.00      0.00;
   54        0.0       0.0       0.0       0.0       0.973     100       1         1338.3    0.0       0.00      0.00      0.00      0.00      0.00      0.00      0.00      0.00      0.00      0.00      0.00;
   250       84.79     10.21     50.0      -21.4     0.968     100       1         95.24     0.0       0.00      0.00      0.00      0.00      0.00      0.00      0.00      0.00      0.00      0.00      0.00;
   253       79.52     4.76      50.0      -16.8     0.966     100       1         88.0      0.0       0.00      0.00      0.00      0.00      0.00      0.00      0.00      0.00      0.00      0.00      0.00;
   253       35.64     4.76      50.0      -16.8     0.966     100       1         44.0      0.0       0.00      0.00      0.00      0.00      0.00      0.00      0.00      0.00      0.00      0.00      0.00;
   255       44.93     10.13     70.0      -20.0     0.971     100       1         99.9      0.0       0.00      0.00      0.00      0.00      0.00      0.00      0.00      0.00      0.00      0.00      0.00;
   257       27.41     6.99      59.8      -23.7     0.976     100       1         27.41     0.0       0.00      0.00      0.00      0.00      0.00      0.00      0.00      0.00      0.00      0.00      0.00;
   257       27.3      6.99      59.8      -23.7     0.976     100       1         27.3      0.0       0.00      0.00      0.00      0.00      0.00      0.00      0.00      0.00      0.00      0.00      0.00;
   257       32.01     6.99      59.8      -23.7     0.976     100       1         32.01     0.0       0.00      0.00      0.00      0.00      0.00      0.00      0.00      0.00      0.00      0.00      0.00;
   257       33.67     6.99      59.8      -23.7     0.976     100       1         49.05     0.0       0.00      0.00      0.00      0.00      0.00      0.00      0.00      0.00      0.00      0.00      0.00;
   257       0.0       0.0       59.8      -23.7     0.976     100       1         51.4      0.0       0.00      0.00      0.00      0.00      0.00      0.00      0.00      0.00      0.00      0.00      0.00;
   296       39.26     -9.18     20.0      -20.0     0.999     100       1         56.04     0.0       0.00      0.00      0.00      0.00      0.00      0.00      0.00      0.00      0.00      0.00      0.00;
   300       1109.1    44.05     392.0     -440.0    0.962     100       1         1192.0    0.0       0.00      0.00      0.00      0.00      0.00      0.00      0.00      0.00      0.00      0.00      0.00;
   301       419.91    41.2      140.0     -140.0    0.978     100       1         424.0     0.0       0.00      0.00      0.00      0.00      0.00      0.00      0.00      0.00      0.00      0.00      0.00;
   302       485.07    93.39     150.0     -150.0    0.974     100       1         510.0     0.0       0.00      0.00      0.00      0.00      0.00      0.00      0.00      0.00      0.00      0.00      0.00;
   303       1302.46   -5.34     600.0     -600.0    1.001     100       1         1425.0    0.0       0.00      0.00      0.00      0.00      0.00      0.00      0.00      0.00      0.00      0.00      0.00;
   304       159.49    -12.3     60.0      -60.0     0.978     100       1         396.0     0.0       0.00      0.00      0.00      0.00      0.00      0.00      0.00      0.00      0.00      0.00      0.00;
   305       269.1     -16.7     120.0     -120.0    0.979     100       1         285.0     0.0       0.00      0.00      0.00      0.00      0.00      0.00      0.00      0.00      0.00      0.00      0.00;
   306       36.03     8.0       68.0      -68.0     0.974     100       1         140.0     0.0       0.00      0.00      0.00      0.00      0.00      0.00      0.00      0.00      0.00      0.00      0.00;
   312       405.68    77.84     120.0     -120.0    1.004     100       1         408.0     0.0       0.00      0.00      0.00      0.00      0.00      0.00      0.00      0.00      0.00      0.00      0.00;
   317       34.0      2.05      24.0      -24.0     1.004     100       1         60.0      0.0       0.00      0.00      0.00      0.00      0.00      0.00      0.00      0.00      0.00      0.00      0.00;
   343       206.84    51.58     70.0      -70.0     1.037     100       1         210.0     0.0       0.00      0.00      0.00      0.00      0.00      0.00      0.00      0.00      0.00      0.00      0.00;
   404       0.0       0.0       0.0       0.0       0.967     100       1         280.0     0.0       0.00      0.00      0.00      0.00      0.00      0.00      0.00      0.00      0.00      0.00      0.00;
   404       0.0       0.0       0.0       0.0       0.967     100       1         280.0     0.0       0.00      0.00      0.00      0.00      0.00      0.00      0.00      0.00      0.00      0.00      0.00;
   405       0.0       0.0       0.0       0.0       0.991     100       1         140.0     0.0       0.00      0.00      0.00      0.00      0.00      0.00      0.00      0.00      0.00      0.00      0.00;
   405       0.0       0.0       0.0       0.0       0.991     100       1         140.0     0.0       0.00      0.00      0.00      0.00      0.00      0.00      0.00      0.00      0.00      0.00      0.00;
   406       0.0       0.0       0.0       0.0       0.999     100       1         140.0     0.0       0.00      0.00      0.00      0.00      0.00      0.00      0.00      0.00      0.00      0.00      0.00;
   406       0.0       0.0       0.0       0.0       0.999     100       1         140.0     0.0       0.00      0.00      0.00      0.00      0.00      0.00      0.00      0.00      0.00      0.00      0.00;
   500       1273.0    -357.0    540.0     -540.0    1.009     100       1         1396.2    0.0       0.00      0.00      0.00      0.00      0.00      0.00      0.00      0.00      0.00      0.00      0.00;
   501       704.0     -264.33   700.0     -700.0    0.986     100       1         704.0     0.0       0.00      0.00      0.00      0.00      0.00      0.00      0.00      0.00      0.00      0.00      0.00;
   501       1700.0    -264.33   700.0     -700.0    0.986     100       1         1700.0    0.0       0.00      0.00      0.00      0.00      0.00      0.00      0.00      0.00      0.00      0.00      0.00;
   501       857.61    -264.33   700.0     -700.0    0.986     100       1         870.0     0.0       0.00      0.00      0.00      0.00      0.00      0.00      0.00      0.00      0.00      0.00      0.00;
   503       1245.27   14.92     96.0      -96.0     0.982     100       1         1440.4    0.0       0.00      0.00      0.00      0.00      0.00      0.00      0.00      0.00      0.00      0.00      0.00;
   505       341.96    10.9      72.0      -72.0     0.985     100       1         354.0     0.0       0.00      0.00      0.00      0.00      0.00      0.00      0.00      0.00      0.00      0.00      0.00;
   506       97.7      -3.89     37.2      -37.6     0.973     100       1         100.96    0.0       0.00      0.00      0.00      0.00      0.00      0.00      0.00      0.00      0.00      0.00      0.00;
   507       163.0     -40.75    308.0     -308.0    0.998     100       1         163.0     0.0       0.00      0.00      0.00      0.00      0.00      0.00      0.00      0.00      0.00      0.00      0.00;
   507       313.8     -40.75    308.0     -308.0    0.998     100       1         480.0     0.0       0.00      0.00      0.00      0.00      0.00      0.00      0.00      0.00      0.00      0.00      0.00;
   508       43.75     -6.13     24.0      -18.0     0.982     100       1         55.0      0.0       0.00      0.00      0.00      0.00      0.00      0.00      0.00      0.00      0.00      0.00      0.00;
   509       54.2      -15.6     30.0      -24.0     0.981     100       1         72.0      0.0       0.00      0.00      0.00      0.00      0.00      0.00      0.00      0.00      0.00      0.00      0.00;
   510       772.49    -109.0    540.0     -540.0    1.005     100       1         1540.0    0.0       0.00      0.00      0.00      0.00      0.00      0.00      0.00      0.00      0.00      0.00      0.00;
   512       68.87     7.3       36.0      -36.0     1.018     100       1         73.8      0.0       0.00      0.00      0.00      0.00      0.00      0.00      0.00      0.00      0.00      0.00      0.00;
   513       461.88    -94.5     240.0     -240.0    1.001     100       1         525.0     0.0       0.00      0.00      0.00      0.00      0.00      0.00      0.00      0.00      0.00      0.00      0.00;
   514       103.5     4.5       200.0     -200.0    0.976     100       1         103.5     0.0       0.00      0.00      0.00      0.00      0.00      0.00      0.00      0.00      0.00      0.00      0.00;
   514       266.89    4.5       200.0     -200.0    0.976     100       1         310.5     0.0       0.00      0.00      0.00      0.00      0.00      0.00      0.00      0.00      0.00      0.00      0.00;
   515       116.01    12.65     46.0      -46.0     0.995     100       1         143.1     0.0       0.00      0.00      0.00      0.00      0.00      0.00      0.00      0.00      0.00      0.00      0.00;
   516       81.56     -14.0     56.0      -56.0     0.999     100       1         105.57    0.0       0.00      0.00      0.00      0.00      0.00      0.00      0.00      0.00      0.00      0.00      0.00;
   517       118.99    14.62     54.0      -54.0     0.996     100       1         131.49    0.0       0.00      0.00      0.00      0.00      0.00      0.00      0.00      0.00      0.00      0.00      0.00;
   518       345.45    21.12     144.0     -144.0    0.973     100       1         347.4     0.0       0.00      0.00      0.00      0.00      0.00      0.00      0.00      0.00      0.00      0.00      0.00;
   519       170.2     -16.0     141.0     -141.0    0.966     100       1         176.0     0.0       0.00      0.00      0.00      0.00      0.00      0.00      0.00      0.00      0.00      0.00      0.00;
   520       783.17    -24.0     50.0      -50.0     1.001     100       1         807.5     0.0       0.00      0.00      0.00      0.00      0.00      0.00      0.00      0.00      0.00      0.00      0.00;
   521       41.2      1.89      50.0      -50.0     0.987     100       1         41.2      0.0       0.00      0.00      0.00      0.00      0.00      0.00      0.00      0.00      0.00      0.00      0.00;
   521       17.41     1.89      50.0      -50.0     0.987     100       1         39.2      0.0       0.00      0.00      0.00      0.00      0.00      0.00      0.00      0.00      0.00      0.00      0.00;
   522       85.55     -10.4     51.0      -51.0     0.993     100       1         108.8     0.0       0.00      0.00      0.00      0.00      0.00      0.00      0.00      0.00      0.00      0.00      0.00;
   523       21.79     -3.87     17.0      -17.0     0.997     100       1         32.0      0.0       0.00      0.00      0.00      0.00      0.00      0.00      0.00      0.00      0.00      0.00      0.00;
   525       11.79     -1.28     9.0       -9.0      1.005     100       1         13.8      0.0       0.00      0.00      0.00      0.00      0.00      0.00      0.00      0.00      0.00      0.00      0.00;
   526       43.04     -12.2     52.0      -52.0     0.987     100       1         43.04     0.0       0.00      0.00      0.00      0.00      0.00      0.00      0.00      0.00      0.00      0.00      0.00;
   526       34.81     -12.2     52.0      -52.0     0.987     100       1         43.98     0.0       0.00      0.00      0.00      0.00      0.00      0.00      0.00      0.00      0.00      0.00      0.00;
   614       74.32     -28.5     39.2      -50.4     0.991     100       1         80.0      0.0       0.00      0.00      0.00      0.00      0.00      0.00      0.00      0.00      0.00      0.00      0.00;
   750       31.92     4.62      16.0      -16.0     0.961     100       1         34.0      0.0       0.00      0.00      0.00      0.00      0.00      0.00      0.00      0.00      0.00      0.00      0.00;
   751       159.81    17.74     50.0      -50.0     0.965     100       1         162.0     0.0       0.00      0.00      0.00      0.00      0.00      0.00      0.00      0.00      0.00      0.00      0.00;
   753       249.78    25.5      105.0     -105.0    0.969     100       1         252.0     0.0       0.00      0.00      0.00      0.00      0.00      0.00      0.00      0.00      0.00      0.00      0.00;
   754       207.78    -37.4     80.0      -90.0     0.977     100       1         210.0     0.0       0.00      0.00      0.00      0.00      0.00      0.00      0.00      0.00      0.00      0.00      0.00;
   800       1058.62   -147.0    600.0     -600.0    0.972     100       1         1257.0    0.0       0.00      0.00      0.00      0.00      0.00      0.00      0.00      0.00      0.00      0.00      0.00;
   802       0.0       0.0       0.0       0.0       0.999     100       1         235.0     0.0       0.00      0.00      0.00      0.00      0.00      0.00      0.00      0.00      0.00      0.00      0.00;
   802       0.0       0.0       0.0       0.0       0.999     100       1         235.0     0.0       0.00      0.00      0.00      0.00      0.00      0.00      0.00      0.00      0.00      0.00      0.00;
   803       0.0       0.0       0.0       0.0       0.999     100       1         484.15    0.0       0.00      0.00      0.00      0.00      0.00      0.00      0.00      0.00      0.00      0.00      0.00;
   804       77.74     -74.8     136.0     -132.0    0.926     100       1         195.0     0.0       0.00      0.00      0.00      0.00      0.00      0.00      0.00      0.00      0.00      0.00      0.00;
   806       117.69    -5.66     58.0      -58.0     0.962     100       1         120.16    0.0       0.00      0.00      0.00      0.00      0.00      0.00      0.00      0.00      0.00      0.00      0.00;
   808       69.96     -23.8     446.8     -600.0    0.981     100       1         930.0     0.0       0.00      0.00      0.00      0.00      0.00      0.00      0.00      0.00      0.00      0.00      0.00;
   810       963.68    -213.0    370.0     -400.0    0.982     100       1         1260.0    0.0       0.00      0.00      0.00      0.00      0.00      0.00      0.00      0.00      0.00      0.00      0.00;
   904       1083.62   -421.0    450.0     -450.0    0.972     100       1         1450.0    0.0       0.00      0.00      0.00      0.00      0.00      0.00      0.00      0.00      0.00      0.00      0.00;
   907       0.0       0.0       0.0       0.0       0.962     100       1         40.0      0.0       0.00      0.00      0.00      0.00      0.00      0.00      0.00      0.00      0.00      0.00      0.00;
   907       0.0       0.0       0.0       0.0       0.962     100       1         40.0      0.0       0.00      0.00      0.00      0.00      0.00      0.00      0.00      0.00      0.00      0.00      0.00;
   909       55.0      -9.93     48.0      -42.0     0.972     100       1         55.0      0.0       0.00      0.00      0.00      0.00      0.00      0.00      0.00      0.00      0.00      0.00      0.00;
   911       110.0     15.32     68.5      -15.5     0.993     100       1         110.0     0.0       0.00      0.00      0.00      0.00      0.00      0.00      0.00      0.00      0.00      0.00      0.00;
   913       300.0     -13.6     164.5     -61.0     0.969     100       1         330.0     0.0       0.00      0.00      0.00      0.00      0.00      0.00      0.00      0.00      0.00      0.00      0.00;
   915       965.13    -184.0    420.0     -440.0    0.977     100       1         1140.0    0.0       0.00      0.00      0.00      0.00      0.00      0.00      0.00      0.00      0.00      0.00      0.00;
   917       156.7     -47.8     115.0     -115.0    0.968     100       1         226.0     0.0       0.00      0.00      0.00      0.00      0.00      0.00      0.00      0.00      0.00      0.00      0.00;
   919       486.26    -84.3     212.0     -160.0    0.976     100       1         728.0     0.0       0.00      0.00      0.00      0.00      0.00      0.00      0.00      0.00      0.00      0.00      0.00;
   921       350.0     -24.2     124.0     -90.0     0.984     100       1         350.0     0.0       0.00      0.00      0.00      0.00      0.00      0.00      0.00      0.00      0.00      0.00      0.00;
   925       1345.7    -201.0    468.0     -468.0    0.961     100       1         1420.0    0.0       0.00      0.00      0.00      0.00      0.00      0.00      0.00      0.00      0.00      0.00      0.00;
   931       65.18     2.0       28.0      -33.0     0.985     100       1         74.0      0.0       0.00      0.00      0.00      0.00      0.00      0.00      0.00      0.00      0.00      0.00      0.00;
   983       319.08    -89.0     135.0     -173.0    0.966     100       1         352.08    0.0       0.00      0.00      0.00      0.00      0.00      0.00      0.00      0.00      0.00      0.00      0.00;
   998       300.0     -79.9     160.0     -115.0    0.997     100       1         345.0     0.0       0.00      0.00      0.00      0.00      0.00      0.00      0.00      0.00      0.00      0.00      0.00;
   1070      694.82    -19.3     281.2     -281.0    0.983     100       1         855.0     0.0       0.00      0.00      0.00      0.00      0.00      0.00      0.00      0.00      0.00      0.00      0.00;
   1107      6442.27   -343.0    2448.0    -2144.0   1.003     100       1         7000.0    0.0       0.00      0.00      0.00      0.00      0.00      0.00      0.00      0.00      0.00      0.00      0.00;
   1150      608.02    -116.0    228.0     -228.0    0.997     100       1         690.0     0.0       0.00      0.00      0.00      0.00      0.00      0.00      0.00      0.00      0.00      0.00      0.00;
   1152      0.0       0.0       0.0       0.0       1.0       100       1         248.57    0.0       0.00      0.00      0.00      0.00      0.00      0.00      0.00      0.00      0.00      0.00      0.00;
   1155      443.43    -15.2     244.0     -240.0    1.0       100       1         500.4     0.0       0.00      0.00      0.00      0.00      0.00      0.00      0.00      0.00      0.00      0.00      0.00;
   1157      754.24    -122.0    291.0     -231.0    1.012     100       1         879.99    0.0       0.00      0.00      0.00      0.00      0.00      0.00      0.00      0.00      0.00      0.00      0.00;
   1159      115.53    1.54      60.0      -60.0     0.992     100       1         130.0     0.0       0.00      0.00      0.00      0.00      0.00      0.00      0.00      0.00      0.00      0.00      0.00;
   1162      166.55    45.9      78.0      -48.0     0.968     100       1         180.0     0.0       0.00      0.00      0.00      0.00      0.00      0.00      0.00      0.00      0.00      0.00      0.00;
   1166      111.54    0.67      63.0      -45.0     0.996     100       1         129.99    0.0       0.00      0.00      0.00      0.00      0.00      0.00      0.00      0.00      0.00      0.00      0.00;
   1168      89.74     -5.66     48.0      -48.0     0.993     100       1         100.0     0.0       0.00      0.00      0.00      0.00      0.00      0.00      0.00      0.00      0.00      0.00      0.00;
   1173      300.0     -35.6     160.0     -115.0    0.979     100       1         350.0     0.0       0.00      0.00      0.00      0.00      0.00      0.00      0.00      0.00      0.00      0.00      0.00;
   1175      82.0      -8.85     90.0      -62.0     0.992     100       1         82.0      0.0       0.00      0.00      0.00      0.00      0.00      0.00      0.00      0.00      0.00      0.00      0.00;
   1175      74.14     -8.85     90.0      -62.0     0.992     100       1         76.0      0.0       0.00      0.00      0.00      0.00      0.00      0.00      0.00      0.00      0.00      0.00      0.00;
   1176      98.18     -16.5     52.0      -66.0     0.99      100       1         125.0     0.0       0.00      0.00      0.00      0.00      0.00      0.00      0.00      0.00      0.00      0.00      0.00;
   1496      11.31     -31.1     76.8      -93.6     0.987     100       1         140.0     0.0       0.00      0.00      0.00      0.00      0.00      0.00      0.00      0.00      0.00      0.00      0.00;
   1501      25.0      3.65      12.0      -10.0     0.978     100       1         25.0      0.0       0.00      0.00      0.00      0.00      0.00      0.00      0.00      0.00      0.00      0.00      0.00;
   1501      14.0      3.65      12.0      -10.0     0.978     100       1         14.0      0.0       0.00      0.00      0.00      0.00      0.00      0.00      0.00      0.00      0.00      0.00      0.00;
   1501      8.88      3.65      12.0      -10.0     0.978     100       1         13.0      0.0       0.00      0.00      0.00      0.00      0.00      0.00      0.00      0.00      0.00      0.00      0.00;
   1502      54.0      -7.4      30.0      -45.0     0.995     100       1         54.0      0.0       0.00      0.00      0.00      0.00      0.00      0.00      0.00      0.00      0.00      0.00      0.00;
   1502      2.17      -7.4      30.0      -45.0     0.995     100       1         48.0      0.0       0.00      0.00      0.00      0.00      0.00      0.00      0.00      0.00      0.00      0.00      0.00;
   1511      2.06      -10.5     19.8      -19.8     0.976     100       1         60.0      0.0       0.00      0.00      0.00      0.00      0.00      0.00      0.00      0.00      0.00      0.00      0.00;
   1559      67.89     3.64      0.0       0.0       0.993     100       1         93.34     0.0       0.00      0.00      0.00      0.00      0.00      0.00      0.00      0.00      0.00      0.00      0.00;
   1585      0.0       0.0       0.0       0.0       0.95      100       1         235.0     0.0       0.00      0.00      0.00      0.00      0.00      0.00      0.00      0.00      0.00      0.00      0.00;
   1594      43.11     4.98      18.6      -20.0     0.982     100       1         112.0     0.0       0.00      0.00      0.00      0.00      0.00      0.00      0.00      0.00      0.00      0.00      0.00;
   1599      30.0      5.03      39.0      -25.0     1.017     100       1         30.0      0.0       0.00      0.00      0.00      0.00      0.00      0.00      0.00      0.00      0.00      0.00      0.00;
   1599      5.06      5.03      39.0      -25.0     1.017     100       1         18.0      0.0       0.00      0.00      0.00      0.00      0.00      0.00      0.00      0.00      0.00      0.00      0.00;
   1599      0.0       0.0       39.0      -25.0     1.017     100       1         30.0      0.0       0.00      0.00      0.00      0.00      0.00      0.00      0.00      0.00      0.00      0.00      0.00;
   1866      25.77     0.03      0.0       0.0       1.025     100       1         48.0      0.0       0.00      0.00      0.00      0.00      0.00      0.00      0.00      0.00      0.00      0.00      0.00;
   2031      40.67     3.57      21.6      -23.4     1.047     100       1         44.01     0.0       0.00      0.00      0.00      0.00      0.00      0.00      0.00      0.00      0.00      0.00      0.00;
   2475      114.03    -7.97     58.0      -58.0     0.961     100       1         120.16    0.0       0.00      0.00      0.00      0.00      0.00      0.00      0.00      0.00      0.00      0.00      0.00;
   2600      194.92    27.49     95.88     -95.9     0.981     100       1         198.0     0.0       0.00      0.00      0.00      0.00      0.00      0.00      0.00      0.00      0.00      0.00      0.00;
   2696      32.91     -2.98     20.0      -20.0     0.967     100       1         55.0      0.0       0.00      0.00      0.00      0.00      0.00      0.00      0.00      0.00      0.00      0.00      0.00;
   2836      112.96    -6.92     57.0      -54.0     0.987     100       1         120.0     0.0       0.00      0.00      0.00      0.00      0.00      0.00      0.00      0.00      0.00      0.00      0.00;
   2863      174.06    -10.4     88.3      -88.3     0.976     100       1         191.88    0.0       0.00      0.00      0.00      0.00      0.00      0.00      0.00      0.00      0.00      0.00      0.00;
   2979      0.0       0.0       0.0       0.0       0.967     100       1         26.06     0.0       0.00      0.00      0.00      0.00      0.00      0.00      0.00      0.00      0.00      0.00      0.00;
   2979      0.0       0.0       0.0       0.0       0.967     100       1         27.51     0.0       0.00      0.00      0.00      0.00      0.00      0.00      0.00      0.00      0.00      0.00      0.00;
   3014      174.2     15.99     51.48     -51.5     1.033     100       1         212.58    0.0       0.00      0.00      0.00      0.00      0.00      0.00      0.00      0.00      0.00      0.00      0.00;
   3017      0.0       0.0       0.0       0.0       0.996     100       1         68.06     0.0       0.00      0.00      0.00      0.00      0.00      0.00      0.00      0.00      0.00      0.00      0.00;
   3017      0.0       0.0       0.0       0.0       0.996     100       1         68.06     0.0       0.00      0.00      0.00      0.00      0.00      0.00      0.00      0.00      0.00      0.00      0.00;
   3524      0.0       0.0       0.0       0.0       1.001     100       1         90.0      0.0       0.00      0.00      0.00      0.00      0.00      0.00      0.00      0.00      0.00      0.00      0.00;
   3641      124.06    48.29     48.0      -48.0     0.975     100       1         129.2     0.0       0.00      0.00      0.00      0.00      0.00      0.00      0.00      0.00      0.00      0.00      0.00;
   3642      47.8      11.62     36.0      -36.0     0.974     100       1         47.8      0.0       0.00      0.00      0.00      0.00      0.00      0.00      0.00      0.00      0.00      0.00      0.00;
   3642      31.88     11.62     36.0      -36.0     0.974     100       1         48.64     0.0       0.00      0.00      0.00      0.00      0.00      0.00      0.00      0.00      0.00      0.00      0.00;
   3740      0.0       0.0       0.0       0.0       0.994     100       1         70.58     0.0       0.00      0.00      0.00      0.00      0.00      0.00      0.00      0.00      0.00      0.00      0.00;
   3740      0.0       0.0       0.0       0.0       0.994     100       1         69.86     0.0       0.00      0.00      0.00      0.00      0.00      0.00      0.00      0.00      0.00      0.00      0.00;
   3744      12.54     -2.66     15.48     -15.5     0.993     100       1         21.34     0.0       0.00      0.00      0.00      0.00      0.00      0.00      0.00      0.00      0.00      0.00      0.00;
   3962      0.0       0.0       240.0     -140.0    1.007     100       1         250.0     0.0       0.00      0.00      0.00      0.00      0.00      0.00      0.00      0.00      0.00      0.00      0.00;
   3962      0.0       0.0       240.0     -140.0    1.007     100       1         250.0     0.0       0.00      0.00      0.00      0.00      0.00      0.00      0.00      0.00      0.00      0.00      0.00;
   3962      0.0       0.0       240.0     -140.0    1.007     100       1         250.0     0.0       0.00      0.00      0.00      0.00      0.00      0.00      0.00      0.00      0.00      0.00      0.00;
   3963      0.0       0.0       180.0     -110.0    1.002     100       1         520.0     0.0       0.00      0.00      0.00      0.00      0.00      0.00      0.00      0.00      0.00      0.00      0.00;
   3964      433.75    -8.85     156.0     -142.0    0.96      100       1         450.0     0.0       0.00      0.00      0.00      0.00      0.00      0.00      0.00      0.00      0.00      0.00      0.00;
   3968      218.01    20.99     117.6     -118.0    0.978     100       1         243.2     0.0       0.00      0.00      0.00      0.00      0.00      0.00      0.00      0.00      0.00      0.00      0.00;
   3974      0.0       0.0       0.0       0.0       0.997     100       1         180.0     0.0       0.00      0.00      0.00      0.00      0.00      0.00      0.00      0.00      0.00      0.00      0.00;
   3974      0.0       0.0       0.0       0.0       0.997     100       1         225.0     0.0       0.00      0.00      0.00      0.00      0.00      0.00      0.00      0.00      0.00      0.00      0.00;
   3974      0.0       0.0       0.0       0.0       0.997     100       1         270.0     0.0       0.00      0.00      0.00      0.00      0.00      0.00      0.00      0.00      0.00      0.00      0.00;
   3974      0.0       0.0       0.0       0.0       0.997     100       1         315.0     0.0       0.00      0.00      0.00      0.00      0.00      0.00      0.00      0.00      0.00      0.00      0.00;
   3974      0.0       0.0       0.0       0.0       0.997     100       1         45.0      0.0       0.00      0.00      0.00      0.00      0.00      0.00      0.00      0.00      0.00      0.00      0.00;
   3974      0.0       0.0       0.0       0.0       0.997     100       1         90.0      0.0       0.00      0.00      0.00      0.00      0.00      0.00      0.00      0.00      0.00      0.00      0.00;
   3974      0.0       0.0       0.0       0.0       0.997     100       1         135.0     0.0       0.00      0.00      0.00      0.00      0.00      0.00      0.00      0.00      0.00      0.00      0.00;
   3977      0.0       0.0       0.0       0.0       1.022     100       1         270.0     0.0       0.00      0.00      0.00      0.00      0.00      0.00      0.00      0.00      0.00      0.00      0.00;
   3977      0.0       0.0       0.0       0.0       1.022     100       1         315.0     0.0       0.00      0.00      0.00      0.00      0.00      0.00      0.00      0.00      0.00      0.00      0.00;
   3977      0.0       0.0       0.0       0.0       1.022     100       1         360.0     0.0       0.00      0.00      0.00      0.00      0.00      0.00      0.00      0.00      0.00      0.00      0.00;
   3977      0.0       0.0       0.0       0.0       1.022     100       1         405.0     0.0       0.00      0.00      0.00      0.00      0.00      0.00      0.00      0.00      0.00      0.00      0.00;
   3977      0.0       0.0       0.0       0.0       1.022     100       1         450.0     0.0       0.00      0.00      0.00      0.00      0.00      0.00      0.00      0.00      0.00      0.00      0.00;
   3977      0.0       0.0       0.0       0.0       1.022     100       1         495.0     0.0       0.00      0.00      0.00      0.00      0.00      0.00      0.00      0.00      0.00      0.00      0.00;
   3977      0.0       0.0       0.0       0.0       1.022     100       1         540.0     0.0       0.00      0.00      0.00      0.00      0.00      0.00      0.00      0.00      0.00      0.00      0.00;
   3977      0.0       0.0       0.0       0.0       1.022     100       1         45.0      0.0       0.00      0.00      0.00      0.00      0.00      0.00      0.00      0.00      0.00      0.00      0.00;
   3977      0.0       0.0       0.0       0.0       1.022     100       1         90.0      0.0       0.00      0.00      0.00      0.00      0.00      0.00      0.00      0.00      0.00      0.00      0.00;
   3977      0.0       0.0       0.0       0.0       1.022     100       1         135.0     0.0       0.00      0.00      0.00      0.00      0.00      0.00      0.00      0.00      0.00      0.00      0.00;
   3977      0.0       0.0       0.0       0.0       1.022     100       1         180.0     0.0       0.00      0.00      0.00      0.00      0.00      0.00      0.00      0.00      0.00      0.00      0.00;
   3977      0.0       0.0       0.0       0.0       1.022     100       1         225.0     0.0       0.00      0.00      0.00      0.00      0.00      0.00      0.00      0.00      0.00      0.00      0.00;
   3978      0.0       0.0       0.0       0.0       1.022     100       1         585.0     0.0       0.00      0.00      0.00      0.00      0.00      0.00      0.00      0.00      0.00      0.00      0.00;
   3978      0.0       0.0       0.0       0.0       1.022     100       1         630.0     0.0       0.00      0.00      0.00      0.00      0.00      0.00      0.00      0.00      0.00      0.00      0.00;
   3978      0.0       0.0       0.0       0.0       1.022     100       1         675.0     0.0       0.00      0.00      0.00      0.00      0.00      0.00      0.00      0.00      0.00      0.00      0.00;
   3978      0.0       0.0       0.0       0.0       1.022     100       1         810.0     0.0       0.00      0.00      0.00      0.00      0.00      0.00      0.00      0.00      0.00      0.00      0.00;
   3978      0.0       0.0       0.0       0.0       1.022     100       1         855.0     0.0       0.00      0.00      0.00      0.00      0.00      0.00      0.00      0.00      0.00      0.00      0.00;
   3978      0.0       0.0       0.0       0.0       1.022     100       1         928.7     0.0       0.00      0.00      0.00      0.00      0.00      0.00      0.00      0.00      0.00      0.00      0.00;
   3978      0.0       0.0       0.0       0.0       1.022     100       1         720.0     0.0       0.00      0.00      0.00      0.00      0.00      0.00      0.00      0.00      0.00      0.00      0.00;
   3978      0.0       0.0       0.0       0.0       1.022     100       1         765.0     0.0       0.00      0.00      0.00      0.00      0.00      0.00      0.00      0.00      0.00      0.00      0.00;
   4016      28.7      5.85      24.0      -24.0     1.007     100       1         50.0      0.0       0.00      0.00      0.00      0.00      0.00      0.00      0.00      0.00      0.00      0.00      0.00;
   4039      8.42      8.21      17.4      -15.5     0.98      100       1         35.0      0.0       0.00      0.00      0.00      0.00      0.00      0.00      0.00      0.00      0.00      0.00      0.00;
   4042      293.72    8.76      72.4      -140.0    0.979     100       1         330.0     0.0       0.00      0.00      0.00      0.00      0.00      0.00      0.00      0.00      0.00      0.00      0.00;
   4044      118.43    28.51     39.4      -94.8     1.023     100       1         120.0     0.0       0.00      0.00      0.00      0.00      0.00      0.00      0.00      0.00      0.00      0.00      0.00;
   4052      232.62    49.21     78.0      -78.0     1.006     100       1         240.0     0.0       0.00      0.00      0.00      0.00      0.00      0.00      0.00      0.00      0.00      0.00      0.00;
   4054      120.65    -1.08     66.0      -66.0     0.968     100       1         140.0     0.0       0.00      0.00      0.00      0.00      0.00      0.00      0.00      0.00      0.00      0.00      0.00;
...